TITL mp-10257-R2SCAN 0.00 21.1376 -23.87176 1.618000 1.618000 (P6_3/mmc) n - 1
REM 
REM Downloaded from the Materials Project database
REM 
REM Energy (Uncorrected)     = -23.87176374     eV
REM Correction               = 0.00000000       eV
REM Energy (Final)           = -23.87176374     eV
REM 
REM material_id              = mp-10257
REM run_type                 = R2SCAN
REM task_id                  = mp-1944299
REM 
CELL 1.00000 2.44802 2.44802 4.07281 90.00000 90.00000 120.00000
LATT -1
SFAC Ni
Ni     1  0.33333300 0.66666700 0.25000000 1.000000  0.81
Ni     2  0.66666700 0.33333300 0.75000000 1.000000  0.81
END
