TITL LiNiO-44572-5178-6 0 162.223 0 0 0  6 (P1) n - 1
REM
REM in /home/mmm1079/applic/mp-res/examples/6_cellfile/test
REM
REM
REM
REM Spacing 0.07
REM s
REM
REM
REM ./LiNiO.cell (1f3cd4b9a9ca5b3f50775f16c5064b4e)
REM ## AIRSS Version 0.9.4 June 2023 commit v0.9.4-48-gaffa771e479fb03446
REM
REM
REM cmdline: airss.pl -max 10 -build -seed LiNiO 
REM
REM
CELL 1.54180    4.86535    4.86535    6.85307   90.00000   90.00000   90.00000
LATT -1
SFAC Ni 
Ni     1 -0.0334326000000  0.4920255000000 -0.0068413000000 1.0   5.00
Ni     1  0.5067583000000  0.0172927000000  0.0247801000000 1.0   5.00
Ni     1  0.5021924000000  0.0121418000000 -0.4835420000000 1.0   5.00
Ni     1 -0.0104059000000  0.4927941000000 -0.5113980000000 1.0   5.00
Ni     1  0.0396174000000  0.0001681000000  0.0016545000000 1.0   5.00
Ni     1  0.5229877000000  0.4667596000000  0.4962617000000 1.0   5.00
END
