TITL LiNiO-44572-5178-9 0 113.977 0 0 0  6 (P1) n - 1
REM
REM in /home/mmm1079/applic/mp-res/examples/6_cellfile/test
REM
REM
REM
REM Spacing 0.07
REM s
REM
REM
REM ./LiNiO.cell (1f3cd4b9a9ca5b3f50775f16c5064b4e)
REM ## AIRSS Version 0.9.4 June 2023 commit v0.9.4-48-gaffa771e479fb03446
REM
REM
REM cmdline: airss.pl -max 10 -build -seed LiNiO 
REM
REM
CELL 1.54180    5.24315    5.24315    5.66419   62.42990   62.42990   60.00000
LATT -1
SFAC Ni 
Ni     1 -0.4909097000000  0.1605427000000  0.4721362000000 1.0   5.00
Ni     1  0.4808966000000 -0.1300743000000 -0.4816305000000 1.0   5.00
Ni     1  0.1183737000000 -0.1305601000000 -0.5017496000000 1.0   5.00
Ni     1 -0.1280838000000  0.1552535000000  0.4765459000000 1.0   5.00
Ni     1 -0.1437804000000  0.5176843000000  0.4809991000000 1.0   5.00
Ni     1  0.1779850000000 -0.5075375000000 -0.4865944000000 1.0   5.00
END
