TITL LiNiO-44572-5178-3 0 171.323 0 0 0  9 (P1) n - 1
REM
REM in /home/mmm1079/applic/mp-res/examples/6_cellfile/test
REM
REM
REM
REM Spacing 0.07
REM s
REM
REM
REM ./LiNiO.cell (1f3cd4b9a9ca5b3f50775f16c5064b4e)
REM ## AIRSS Version 0.9.4 June 2023 commit v0.9.4-48-gaffa771e479fb03446
REM
REM
REM cmdline: airss.pl -max 10 -build -seed LiNiO 
REM
REM
CELL 1.54180    6.23414    6.23414    6.23414   60.00000   60.00000   60.00000
LATT -1
SFAC Ni 
Ni     1  0.3314054000000  0.0246717000000  0.3382109000000 1.0   5.00
Ni     1 -0.3401340000000  0.0007959000000 -0.3311080000000 1.0   5.00
Ni     1  0.3546061000000  0.3085679000000  0.3031349000000 1.0   5.00
Ni     1 -0.3080982000000 -0.3426319000000 -0.3305225000000 1.0   5.00
Ni     1  0.0347698000000  0.3409504000000  0.3363142000000 1.0   5.00
Ni     1  0.3229818000000  0.3143625000000  0.0544144000000 1.0   5.00
Ni     1 -0.0138792000000 -0.3548353000000 -0.3127007000000 1.0   5.00
Ni     1 -0.3063056000000 -0.3213380000000 -0.0199645000000 1.0   5.00
Ni     1  0.0136955000000 -0.0007412000000 -0.0030976000000 1.0   5.00
END
